71

C 1.169994950 -2.604300022 -1.168851972
C -2.150984764 0.700694919 -1.398736596
C 0.977548659 -3.020112514 1.093943000
C 1.238981962 -3.800621510 -0.506468177
N 2.263016462 1.824671865 -2.139568090
C -2.061037540 0.734502554 0.282967538
C 1.086104393 3.132426262 1.500210524
C -0.439188451 3.096359253 2.630970240
C 0.913095653 1.788082004 -2.969038248
C 0.439644605 -1.674710989 -0.682879627
C -1.284758925 -1.219194770 1.393063664
C 1.521077752 -0.252684653 -1.966311693
C -0.697434783 0.402780741 -1.633844376
C -1.482794404 1.019414306 2.657543421
C -0.682213426 1.475123644 0.709530115
C -1.694340229 -0.453067392 2.586817503
C -0.507205188 -3.041470528 2.927762747
C 0.863362908 0.711246729 -4.006848335
C -0.851808071 2.200738192 3.274794340
C 0.322930187 -2.764015436 0.087988086
S 0.144298390 -0.388962060 -0.766317844
C -0.177271888 2.638770103 1.305375099
C 1.088982344 -0.505671620 -3.212101936
C -2.040725231 -4.809279442 -7.150043488
C 0.604276121 -7.501278877 -6.739044189
C 3.886275291 -7.896283150 -4.920043945
C 0.823275328 -1.521281362 -10.805047035
C 1.357275009 1.770718217 7.557955742
C -11.527723312 -2.156281471 -0.121043399
C -10.245723724 -0.856281936 3.223958969
C -2.920726299 4.455720901 -3.738040924
C -4.858721256 1.247718692 -4.586044312
C -7.456720829 -2.604281425 -6.399044037
C -10.529722214 -7.094279289 -2.387041092
C -8.447719574 -8.173282623 -7.599042892
C 0.788275957 3.772719383 -7.454044342
C 5.018278599 -0.476282567 -4.398044586
C 4.857278347 -3.134280205 -1.674044132
C 7.618275166 -2.508280754 3.170957565
C 1.586275339 -2.988280296 9.194954872
C -2.489726067 -4.992280006 -10.913044930
C -5.644721508 2.871719360 -7.923045158
C -5.107721806 0.001717594 -10.380045891
C 6.868278980 4.536721230 -5.801044464
C -1.342725039 6.217720985 5.917956352
C -4.897721767 4.883720398 6.363956451
C 7.986276150 3.278718948 4.485956192
C 4.048277378 -2.278281212 6.402956009
C 5.994278431 6.920721054 6.538956642
C 4.494278431 3.735718727 7.841957092
C -2.959726334 8.875717163 1.590955257
C -0.586723864 10.075716019 -1.995042920
C 2.457273960 10.323717117 -5.403043747
C 8.395277023 -4.489279747 -1.715044498
C 10.003276825 1.821718812 0.119957745
C 11.030277252 7.540720940 1.350955486
C 7.024278164 0.104718409 6.379956245
C -0.247724012 1.762718797 11.024954796
C -0.003723980 9.595716476 7.135956764
C -4.581720829 4.686720848 10.152953148
C -7.788721561 5.825720787 -1.753044605
C 6.844278812 -6.180279732 4.108952522
C -10.174722672 3.615718842 6.951956749
C -8.778722763 7.892719269 8.936953545
C -10.543722153 -4.576279640 -5.297042847
C 6.892278194 -6.670279503 -6.880043030
C -1.146723509 -12.867284775 -12.557045937
C -8.840723038 -10.702283859 -10.470046043
C -12.786722183 -10.263284683 -7.810043335
C -3.976724625 -15.381284714 -11.781044960
C 6.507278919 -4.931279182 11.497954369
