88

N -4.426903248 1.237177968 1.480194569
N 2.362781286 0.055507254 -0.901627183
C -0.353729963 1.928274870 0.129439652
O 3.208114147 -3.507360935 -2.054387331
N 0.352464020 -2.774868727 -0.218363255
C -6.649801254 0.246771529 1.264325142
N -1.381443620 -1.935298562 1.626095176
C -5.712743759 0.870639563 1.761727452
C 4.193599224 2.519443512 -2.367935419
C 0.733426392 1.188557029 -0.582647920
C 4.201906681 3.717913628 -2.151630878
C 1.656775951 3.345897675 -0.300659746
C -0.498854220 -1.909752607 0.510033607
C 2.638627529 2.409400940 -0.748465061
N -4.820127487 2.455354691 0.505834401
C -2.328127861 -0.428985894 1.911472797
N -3.806770325 -1.812330961 3.414592981
C 1.611993551 -0.800637901 -1.107881665
O 2.320596933 -3.212190390 -0.960223734
C 4.824304581 4.536395550 -4.440168858
C 3.365869284 -3.025801182 0.334873766
C -3.070174932 -0.726600587 2.947606325
C 2.865541220 1.144565225 -0.799067318
N -1.068371654 2.255408049 1.092206717
C -1.479655027 0.307959318 1.154433370
C 3.927932024 0.385550976 -1.618188977
C 0.770824254 -1.443468332 0.014556274
C -3.993641138 -0.880049407 -1.774272680
C 4.150792599 1.149963379 -2.600199699
C -4.516322136 0.496700525 2.470018387
C 4.502852917 -4.690542698 -0.605486572
O 2.723377466 -2.338501930 -1.558982491
N -5.733824730 -0.594915688 3.462643623
C -0.347323358 -0.684729695 1.052527189
C -0.223964453 0.514553547 -0.342392176
C -6.949910164 3.828094721 3.937626362
C -10.162918091 -0.052908685 5.519625664
C -8.740919113 -5.474909306 7.402629852
C -9.119918823 -0.125909388 -5.803375244
C -8.600919724 2.681093454 -3.249371529
C -5.961910248 -3.481907129 -10.328367233
C 6.246089935 0.518090904 1.529627800
C 3.883085728 -0.436908901 4.361624718
C 1.112080097 5.048089504 3.611627579
C -1.580919504 4.961088657 -1.500370979
C -0.888918459 1.400090337 -2.672370434
C 1.517080069 -1.050908923 -4.248373985
C 1.877079248 -4.758909702 -4.841374397
C 4.582090378 -5.640909672 -2.365370274
C 0.672081172 4.233091831 -6.683375359
C 1.394079924 7.206089497 -0.721370935
C 7.443090439 -3.126904249 -2.240371704
C 4.085089684 2.600093126 -6.363375664
C -11.451919556 -5.576910496 4.694624901
C -7.592910767 7.584089756 -1.263370752
C 8.724081039 -5.815908909 1.777628660
C 9.410079956 -5.408909321 -6.916375160
C 7.462089539 3.388095140 -0.646370411
C 3.975089788 2.322093248 6.991630554
C 9.366081238 -0.767909050 6.149624825
C 9.285079956 -8.649915695 4.249625206
C 11.929080963 -4.155909061 2.937628269
C 9.757080078 2.444092989 -3.472371101
C 4.841089249 5.045089245 4.459624290
C -1.101918459 -4.496910572 -12.465366364
C -12.246919632 -2.097904921 -4.930374146
C -8.169918060 -0.929910362 -12.095367432
C -6.260910034 2.379091978 -12.240367889
C -3.990921497 7.921090603 -9.201370239
C -13.428918839 3.397094965 -2.823370457
C -9.913919449 5.266089916 -5.731374741
C -12.199918747 0.975091457 -0.169371098
C -14.265918732 -1.821905017 -1.729370594
C -4.578909874 8.558090210 2.868628025
C -4.842909813 4.908089161 6.928627014
C -9.602918625 -0.858909965 10.233633041
C 0.895080984 5.987089634 8.825634003
C -0.459919244 8.478086472 3.768628120
C -0.153918162 7.676089764 -5.341375351
C -0.138918892 10.663084030 -1.258370876
C 10.918081284 3.279094934 2.241628647
C 12.922080994 0.642091393 0.354629070
C 10.255081177 -2.422905684 -4.732374191
C 6.164089203 6.234090328 -9.907367706
C 13.368080139 2.328093290 -4.618373871
C 5.744089127 -3.067904711 -10.172367096
C 5.278089523 0.601091087 -9.322368622
C 8.714080811 10.336084366 -0.996370435
